
Circuit: circuit_t2_2

Doing analysis at TEMP = 27.000000 and TNOM = 27.000000


No. of Data Rows : 1
op_TAB2
i(vaux) = -4.33681e-19
i(h1) = 2.783827e-03
@g1[i] = -2.16736e-18
@r1[i] = -2.06837e-18
@r2[i] = -2.16736e-18
@r3[i] = 9.898797e-20
@r4[i] = 4.379062e-19
@r5[i] = -2.78383e-03
@r6[i] = -4.33681e-19
@r7[i] = 8.858001e-19
h1#branch = 2.783827e-03
n1 = 0.000000e+00
n2 = -2.07580e-15
n3 = -6.50369e-15
n5 = -1.77636e-15
n6 = 8.568097e+00
n7 = 8.729000e-16
n7. = 8.729000e-16
n8 = 1.776357e-15
vaux#branch = -4.33681e-19
vs#branch = -2.06837e-18
vx#branch = -2.78383e-03
v(n5,n2) = 2.994417e-16
v(n5,n8) = -3.55271e-15
op_END2
ngspice-31 done
