
Circuit: circuit_t2_4

Doing analysis at TEMP = 27.000000 and TNOM = 27.000000


No. of Data Rows : 1
Doing analysis at TEMP = 27.000000 and TNOM = 27.000000


Initial Transient Solution
--------------------------

Node                                   Voltage
----                                   -------
n2                                -5.68791e-13
n1                                           0
n3                                -1.78208e-12
n5                                -4.86741e-13
n6                                      8.5681
n7                                 1.84759e-13
n8                                 2.78383e-13
n7.                                1.84759e-13
h1#branch                           0.00278383
vaux#branch                       -9.17936e-17
vs#branch                         -5.66756e-16


No. of Data Rows : 20008

The file "trans-2.eps" may be printed on a postscript printer.
ngspice-31 done
