
Circuit: circuit_t2_5

Doing analysis at TEMP = 27.000000 and TNOM = 27.000000


No. of Data Rows : 1
Doing analysis at TEMP = 27.000000 and TNOM = 27.000000


No. of Data Rows : 7001

The file "ac-1.eps" may be printed on a postscript printer.

The file "ac-2.eps" may be printed on a postscript printer.
ngspice-31 done
