
Circuit: circuit_t1

Doing analysis at TEMP = 27.000000 and TNOM = 27.000000


No. of Data Rows : 1
op_TAB
i(vaux) = 9.187358e-04
i(h1) = 1.202281e-04
@g1[i] = -2.95727e-04
@id[current] = 1.038964e-03
@r1[i] = -2.82220e-04
@r2[i] = -2.95727e-04
@r3[i] = 1.350709e-05
@r4[i] = -1.20096e-03
@r5[i] = -1.33469e-03
@r6[i] = 9.187358e-04
@r7[i] = -9.18736e-04
h1#branch = 1.202281e-04
n1 = 4.226624e+00
n2 = 4.830792e+00
n3 = 5.114025e+00
n4 = 4.871651e+00
n5 = 8.979579e+00
n6 = -1.84920e+00
n7 = -1.84920e+00
n8 = -2.78625e+00
va#branch = -2.82220e-04
vaux#branch = 9.187358e-04
v(n4,n2) = 4.085937e-02
v(n4,n8) = 7.657904e+00
op_END
ngspice-31 done
