
Circuit: circuit_t1

Doing analysis at TEMP = 27.000000 and TNOM = 27.000000


No. of Data Rows : 1

+---------------------------------------------------+
|     VALORES DE VOLTAGENS E CURRENTES(#branch)     |
+---------------------------------------------------+

op_TAB
h1#branch = 1.202281e-01
n1 = 4.226624e+00
n2 = 4.830792e+00
n3 = 5.114025e+00
n4 = 4.871651e+00
n5 = 8.979579e+00
n6 = -1.84920e+00
n7 = -1.84920e+00
n8 = -2.78625e+00
va#branch = -2.82220e-01
vaux#branch = 9.187358e-01
n2-n4 = -4.08594e-02
n4-n8 = 7.657904e+00
i(vaux) = 9.187358e-01
op_END

______________________________________________________

ngspice-31 done
